/batch
/config,noeldb,1     ! force off writing results to database
*get,_wallstrt,active,,time,wall
! ANSYS input file written by Workbench version 16.0 RELEASE
! File used for geometry attach: C:\Users\Manish\AppData\Local\Temp\WB_MANISHDESKTOP_Manish_4268_2\unsaved_project_files\dp0\SYS\DM\SYS.agdb
/title,unsaved_project--Static Structural (A5)
*DIM,_wb_ProjectScratch_dir,string,248
_wb_ProjectScratch_dir(1) = 'C:\Users\Manish\AppData\Local\Temp\WB_MANISHDESKTOP_Manish_4268_2\_ProjectScratch\ScrD6C0\'
*DIM,_wb_SolverFiles_dir,string,248
_wb_SolverFiles_dir(1) = 'C:\Users\Manish\AppData\Local\Temp\WB_MANISHDESKTOP_Manish_4268_2\unsaved_project_files\dp0\SYS\MECH\'
*DIM,_wb_userfiles_dir,string,248
_wb_userfiles_dir(1) = 'C:\Users\Manish\AppData\Local\Temp\WB_MANISHDESKTOP_Manish_4268_2\unsaved_project_files\user_files\'
/com,--- Data in consistent MKS units. See Solving Units in the help system for more information.
/units,MKS
/nopr
/wb,file,start              !  signify a WB generated input file
/prep7
! Turn off shape checking because checks already performed inside WB mesher.
! See help system for more information.
SHPP,OFF,,NOWARN
/nolist
etcon,set             ! allow ANSYS to choose best KEYOP's for 180x elements
/com,*********** Nodes for the whole assembly ***********
nblock,3
(1i9,3e20.9e3)
        1    1.538461538E-001    0.000000000E+000   -1.428571429E-002
        2    1.476923077E-001    0.000000000E+000   -1.428571429E-002
        3    1.415384615E-001    0.000000000E+000   -1.428571429E-002
        4    1.353846154E-001    0.000000000E+000   -1.428571429E-002
        5    1.292307692E-001    0.000000000E+000   -1.428571429E-002
        6    1.230769231E-001    0.000000000E+000   -1.428571429E-002
        7    1.169230769E-001    0.000000000E+000   -1.428571429E-002
        8    1.107692308E-001    0.000000000E+000   -1.428571429E-002
        9    1.046153846E-001    0.000000000E+000   -1.428571429E-002
       10    9.846153846E-002    0.000000000E+000   -1.428571429E-002
       11    9.230769231E-002    0.000000000E+000   -1.428571429E-002
       12    8.615384615E-002    0.000000000E+000   -1.428571429E-002
       13    1.538461538E-001    0.000000000E+000   -8.571428571E-003
       14    1.476923077E-001    0.000000000E+000   -8.571428571E-003
       15    1.415384615E-001    0.000000000E+000   -8.571428571E-003
       16    1.353846154E-001    0.000000000E+000   -8.571428571E-003
       17    1.292307692E-001    0.000000000E+000   -8.571428571E-003
       18    1.230769231E-001    0.000000000E+000   -8.571428571E-003
       19    1.169230769E-001    0.000000000E+000   -8.571428571E-003
       20    1.107692308E-001    0.000000000E+000   -8.571428571E-003
! ... 3907 like lines cut
/wb,elem,start            !  set before creation of elements
/com,*********** Elements for Body 1 "Part1" ***********
et,1,186
keyo,1,2,1          ! set full integration on SOLID186
eblock,19,solid,,520
(19i9)
        1        1        1        1        0        0        0        0       20        0      183     1167     1783     1851     1853     1586     1842     1852     1887
     1927     3683     3809     1928     3276     3792     3810     3277     1926     3682     3808     3813
        1        1        1        1        0        0        0        0       20        0      184     1167     1853     1851     1783     1168     1860     1850     1784
     1928     3809     3683     1927     1933     3807     3686     1932     1923     3812     3806     3680
        1        1        1        1        0        0        0        0       20        0      185     1168     1860     1850     1784     1169     1867     1849     1785
     1933     3807     3686     1932     1938     3805     3689     1937     1929     3832     3804     3684
        1        1        1        1        0        0        0        0       20        0      186     1169     1867     1849     1785     1170     1874     1848     1786
     1938     3805     3689     1937     1943     3803     3691     1942     1934     3845     3802     3687
        1        1        1        1        0        0        0        0       20        0      187     1170     1874     1848     1786     1587     1684     1685     1686
     1943     3803     3691     1942     3280     3493     3495     3281     1941     3494     3496     3498
        1        1        1        1        0        0        0        0       20        0      188     1167     1195     1787     1783     1586     1579     1841     1842
     1925     2050     3681     1927     3261     3262     3791     3276     1926     2049     3694     3682
        1        1        1        1        0        0        0        0       20        0      189     1167     1783     1787     1195     1168     1784     1788     1196
     1927     3681     2050     1925     1932     3685     2054     1931     1923     3680     3692     2046
        1        1        1        1        0        0        0        0       20        0      190     1168     1784     1788     1196     1169     1785     1789     1197
     1932     3685     2054     1931     1937     3688     2058     1936     1929     3684     3695     2051
        1        1        1        1        0        0        0        0       20        0      191     1169     1785     1789     1197     1170     1786     1790     1198
     1937     3688     2058     1936     1942     3690     2062     1940     1934     3687     3697     2055
        1        1        1        1        0        0        0        0       20        0      192     1170     1786     1790     1198     1587     1686     1687     1594
     1942     3690     2062     1940     3281     3497     3302     3279     1941     3498     3500     2061
! ... 1021 like lines cut
!Material Id = {4FEC18B4-353C-4CB8-B000-F5A967D1D279}
/com,*********** Elements for Body 2 "Part1" ***********
et,2,186
keyo,2,2,1          ! set full integration on SOLID186
eblock,19,solid,,182
(19i9)
        2        2        2        2        0        0        0        0       20        0        1        1      313      312      296      144      319      311      308
      342     1134     1115      341      804     1133     1128      803      339     1136     1132     1114
        2        2        2        2        0        0        0        0       20        0        2        1      296      312      313      145      230      229      223
      341     1115     1134      342      808      993      981      807      340      996      994      982
        2        2        2        2        0        0        0        0       20        0        3        1       13      314      313      144      132      320      319
      338      402     1135      342      778      779     1146      804      339      400     1138     1136
        2        2        2        2        0        0        0        0       20        0        4        1      313      314       13      145      223      224      157
      342     1135      402      338      807      980      844      806      340      982      984      401
        2        2        2        2        0        0        0        0       20        0        5       13       25      315      314      132      120      321      320
      399      451     1137      402      753      754     1147      779      400      449     1140     1138
        2        2        2        2        0        0        0        0       20        0        6       13      314      315       25      157      224      225      169
      402     1137      451      399      844      983      869      843      401      984      986      450
        2        2        2        2        0        0        0        0       20        0        7       25       37      316      315      120      108      322      321
      448      500     1139      451      728      729     1148      754      449      498     1142     1140
        2        2        2        2        0        0        0        0       20        0        8       25      315      316       37      169      225      226      181
      451     1139      500      448      869      985      894      868      450      986      988      499
        2        2        2        2        0        0        0        0       20        0        9       37       49      317      316      108       96      323      322
      497      549     1141      500      703      704     1149      729      498      547     1144     1142
        2        2        2        2        0        0        0        0       20        0       10       37      316      317       49      181      226      227      193
      500     1141      549      497      894      987      919      893      499      988      990      548
! ... 345 like lines cut
!Material Id = {E96EBD8F-608B-403A-82AE-2AEF348EA353}
/wb,elem,end               !  done creating elements
/com,*********** Send User Defined Coordinate System(s) ***********
csys,0
toffst,273.15,  ! Temperature offset from absolute zero
/com,*********** Set Reference Temperature ***********
tref,22.
/wb,mat,start              !  starting to send materials
/com,*********** Send Materials ***********
MP,DENS,1,7850,	! kg m^-3
MP,ALPX,1,1.2e-05,	! C^-1
MP,C,1,434,	! J kg^-1 C^-1
MP,KXX,1,60.5,	! W m^-1 C^-1
MP,RSVX,1,1.7e-07,	! kg m^3 A^-2 s^-3
MP,EX,1,200000000000,	! Pa
MP,NUXY,1,0.3,
MP,MURX,1,10000,

MP,DENS,2,7850,	! kg m^-3
MP,ALPX,2,1.2e-05,	! C^-1
MP,C,2,434,	! J kg^-1 C^-1
MP,KXX,2,60.5,	! W m^-1 C^-1
MP,RSVX,2,1.7e-07,	! kg m^3 A^-2 s^-3
MP,EX,2,200000000000,	! Pa
MP,NUXY,2,0.3,
MP,MURX,2,10000,

/wb,mat,end                !  done sending materials
!************************* Model Summary ********************
!Part1,	Structural Steel,	matid,	1
!Part1,	Structural Steel,	matid,	2
!************************* End Model Summary ********************
! get the diagonal of the bounding box. Needed later for other things
*get,_xmin,node,,mnloc,x
*get,_ymin,node,,mnloc,y
*get,_zmin,node,,mnloc,z
*get,_xmax,node,,mxloc,x
*get,_ymax,node,,mxloc,y
*get,_zmax,node,,mxloc,z
_ASMDIAG=(_xmax-_xmin)*(_xmax-_xmin)+(_ymax-_ymin)*(_ymax-_ymin)+(_zmax-_zmin)*(_zmax-_zmin)
_ASMDIAG=SQRT(_ASMDIAG)
/wb,contact,start          !  starting to send contact
/com,*********** Create Contact "Contact Region" ***********
/com,            Real Constant Set For Above Contact Is 4 & 3 
*set,tid,4
*set,cid,3
r,tid
r,cid
et,tid,170
et,cid,174
eblock,10,,,24
(15i9)
      703        4        4        4        0     1850     1860     1853     1851     3807     3812     3809     3806
      704        4        4        4        0     1849     1867     1860     1850     3805     3832     3807     3804
      705        4        4        4        0     1848     1874     1867     1849     3803     3845     3805     3802
      706        4        4        4        0     1860     1861     1854     1853     3831     3815     3811     3812
      707        4        4        4        0     1867     1868     1861     1860     3844     3834     3831     3832
      708        4        4        4        0     1874     1875     1868     1867     3857     3847     3844     3845
      709        4        4        4        0     1861     1862     1855     1854     3833     3818     3814     3815
      710        4        4        4        0     1868     1869     1862     1861     3846     3836     3833     3834
      711        4        4        4        0     1875     1876     1869     1868     3858     3849     3846     3847
      712        4        4        4        0     1862     1863     1856     1855     3835     3821     3817     3818
      713        4        4        4        0     1869     1870     1863     1862     3848     3838     3835     3836
      714        4        4        4        0     1876     1877     1870     1869     3859     3851     3848     3849
      715        4        4        4        0     1863     1864     1857     1856     3837     3824     3820     3821
      716        4        4        4        0     1870     1871     1864     1863     3850     3840     3837     3838
      717        4        4        4        0     1877     1878     1871     1870     3860     3853     3850     3851
      718        4        4        4        0     1864     1865     1858     1857     3839     3827     3823     3824
      719        4        4        4        0     1871     1872     1865     1864     3852     3842     3839     3840
      720        4        4        4        0     1878     1879     1872     1871     3861     3855     3852     3853
      721        4        4        4        0     1865     1866     1859     1858     3841     3829     3826     3827
      722        4        4        4        0     1872     1873     1866     1865     3854     3843     3841     3842
! ... 5 like lines cut
eblock,10,,,24
(15i9)
      727        3        3        3        0     1850     1860     1853     1851     3807     3812     3809     3806
      728        3        3        3        0     1849     1867     1860     1850     3805     3832     3807     3804
      729        3        3        3        0     1848     1874     1867     1849     3803     3845     3805     3802
      730        3        3        3        0     1860     1861     1854     1853     3831     3815     3811     3812
      731        3        3        3        0     1867     1868     1861     1860     3844     3834     3831     3832
      732        3        3        3        0     1874     1875     1868     1867     3857     3847     3844     3845
      733        3        3        3        0     1861     1862     1855     1854     3833     3818     3814     3815
      734        3        3        3        0     1868     1869     1862     1861     3846     3836     3833     3834
      735        3        3        3        0     1875     1876     1869     1868     3858     3849     3846     3847
      736        3        3        3        0     1862     1863     1856     1855     3835     3821     3817     3818
      737        3        3        3        0     1869     1870     1863     1862     3848     3838     3835     3836
      738        3        3        3        0     1876     1877     1870     1869     3859     3851     3848     3849
      739        3        3        3        0     1863     1864     1857     1856     3837     3824     3820     3821
      740        3        3        3        0     1870     1871     1864     1863     3850     3840     3837     3838
      741        3        3        3        0     1877     1878     1871     1870     3860     3853     3850     3851
      742        3        3        3        0     1864     1865     1858     1857     3839     3827     3823     3824
      743        3        3        3        0     1871     1872     1865     1864     3852     3842     3839     3840
      744        3        3        3        0     1878     1879     1872     1871     3861     3855     3852     3853
      745        3        3        3        0     1865     1866     1859     1858     3841     3829     3826     3827
      746        3        3        3        0     1872     1873     1866     1865     3854     3843     3841     3842
! ... 5 like lines cut
eblock,10,,,14
(15i9)
      751        3        4        3        0      336      325      281      282     1152     1086     1085     1087
      752        3        4        3        0      335      326      325      336     1154     1151     1152     1166
      753        3        4        3        0      334      327      326      335     1156     1153     1154     1165
      754        3        4        3        0      333      328      327      334     1158     1155     1156     1164
      755        3        4        3        0      332      329      328      333     1160     1157     1158     1163
      756        3        4        3        0      331      330      329      332     1161     1159     1160     1162
      757        3        4        3        0      309      310      330      331     1129     1131     1161     1130
      758        3        4        3        0      325      222      256      281      979      978     1046     1086
      759        3        4        3        0      326      221      222      325      977      976      979     1151
      760        3        4        3        0      327      220      221      326      975      974      977     1153
      761        3        4        3        0      328      219      220      327      973      972      975     1155
      762        3        4        3        0      329      218      219      328      971      970      973     1157
      763        3        4        3        0      330      217      218      329      969      967      971     1159
      764        3        4        3        0      310      242      217      330     1019      968      969     1131
-1
eblock,10,,,14
(15i9)
      765        4        3        4        0      336      325      281      282     1152     1086     1085     1087
      766        4        3        4        0      335      326      325      336     1154     1151     1152     1166
      767        4        3        4        0      334      327      326      335     1156     1153     1154     1165
      768        4        3        4        0      333      328      327      334     1158     1155     1156     1164
      769        4        3        4        0      332      329      328      333     1160     1157     1158     1163
      770        4        3        4        0      331      330      329      332     1161     1159     1160     1162
      771        4        3        4        0      309      310      330      331     1129     1131     1161     1130
      772        4        3        4        0      325      222      256      281      979      978     1046     1086
      773        4        3        4        0      326      221      222      325      977      976      979     1151
      774        4        3        4        0      327      220      221      326      975      974      977     1153
      775        4        3        4        0      328      219      220      327      973      972      975     1155
      776        4        3        4        0      329      218      219      328      971      970      973     1157
      777        4        3        4        0      330      217      218      329      969      967      971     1159
      778        4        3        4        0      310      242      217      330     1019      968      969     1131
-1
keyo,cid,8,2               ! auto create asymmetric contact (from Program Controlled setting)
keyo,cid,10,2              ! adjust contact stiffness each NR iteration (from Program Controlled setting)
keyo,cid,12,5              ! bonded always
keyo,cid,2,0               ! augmented Lagrange (from Program Controlled setting)
keyo,cid,4,0               ! on Gauss point (from Program Controlled setting)
keyo,cid,9,1               ! ignore initial gaps/penetration
keyo,cid,7,0               ! No Prediction
rmod,tid,3,10.	! FKN
rmod,tid,5,0.	! ICONT
rmod,tid,6,0.	! PINB
rmod,tid,10,0.	! CNOF
rmod,tid,12,0.	! FKT
rmod,tid,36,25	! WB DSID
rmod,cid,3,10.	! FKN
rmod,cid,5,0.	! ICONT
rmod,cid,6,0.	! PINB
rmod,cid,10,0.	! CNOF
rmod,cid,12,0.	! FKT
rmod,cid,36,25	! WB DSID
nsel,all
esel,all
/wb,contact,end            !  done creating contacts
/golist
/wb,load,start             !  starting to send loads
/com,*********** Fixed Supports ***********
CMBLOCK,_FIXEDSU,NODE,      147
(8i10)
      1671      1672      1673      1674      1675      1676      1677      1698
      1712      1773      1774      1775      1776      1777      1843      1844
      1845      1846      1847      1888      1889      1890      1891      1892
      1893      1894      1895      1896      1897      1898      1899      1900
      1901      1902      1903      1904      1905      1906      1907      1908
      1909      1910      1911      1912      1913      1914      1915      1916
      1917      1918      1919      1920      1921      1922      3465      3466
      3467      3468      3469      3470      3471      3472      3473      3474
      3475      3476      3477      3478      3479      3521      3548      3662
      3663      3664      3665      3666      3667      3668      3669      3670
      3793      3794      3795      3796      3797      3798      3799      3800
      3801      3869      3870      3871      3872      3873      3874      3875
      3876      3877      3878      3879      3880      3881      3882      3883
      3884      3885      3886      3887      3888      3889      3890      3891
      3892      3893      3894      3895      3896      3897      3898      3899
      3900      3901      3902      3903      3904      3905      3906      3907
      3908      3909      3910      3911      3912      3913      3914      3915
      3916      3917      3918      3919      3920      3921      3922      3923
      3924      3925      3926
cmsel,s,_FIXEDSU
d,all,all
nsel,all
nsel,all
/com,*********** Define Force Using Surface Effect Elements ***********
local,12,0,0.,0.,0.,-0.,0.,0.
csys,0
et,5,154
eblock,10,,,14
(15i9)
      779        5        5        5       12      319      313      312      311     1136     1134     1132     1133
      780        5        5        5       12      320      314      313      319     1138     1135     1136     1146
      781        5        5        5       12      321      315      314      320     1140     1137     1138     1147
      782        5        5        5       12      322      316      315      321     1142     1139     1140     1148
      783        5        5        5       12      323      317      316      322     1144     1141     1142     1149
      784        5        5        5       12      324      318      317      323     1145     1143     1144     1150
      785        5        5        5       12      284      283      318      324     1088     1089     1145     1090
      786        5        5        5       12      313      223      229      312      982      981      994     1134
      787        5        5        5       12      314      224      223      313      984      980      982     1135
      788        5        5        5       12      315      225      224      314      986      983      984     1137
      789        5        5        5       12      316      226      225      315      988      985      986     1139
      790        5        5        5       12      317      227      226      316      990      987      988     1141
      791        5        5        5       12      318      228      227      317      992      989      990     1143
      792        5        5        5       12      283      243      228      318     1021      991      992     1089
-1
esel,s,type,,5
keyop,5,2,1                ! Apply load in local coordinate system
keyop,5,7,1                ! Use original area so load is constant in large deformation
keyop,5,11,2               ! Use real and not project area
esel,all

*DIM,_loadvari37x,TABLE,2,1,1,TIME,
! Time values
_loadvari37x(1,0,1) = 0.
_loadvari37x(2,0,1) = 1.
! Load values
_loadvari37x(1,1,1) = 2500000.00000019
_loadvari37x(2,1,1) = 2500000.00000019


*DIM,_loadvari37y,TABLE,2,1,1,TIME,
! Time values
_loadvari37y(1,0,1) = 0.
_loadvari37y(2,0,1) = 1.
! Load values
_loadvari37y(1,1,1) = 0.
_loadvari37y(2,1,1) = 0.


*DIM,_loadvari37z,TABLE,2,1,1,TIME,
! Time values
_loadvari37z(1,0,1) = 0.
_loadvari37z(2,0,1) = 1.
! Load values
_loadvari37z(1,1,1) = 0.
_loadvari37z(2,1,1) = 0.

/gst,on,on
fini
*get,_numnode,node,0,count
*get,_numelem,elem,0,count
*get, _MAXELEMNUM, elem, 0, NUM, MAX
*get, _MAXNODENUM, node, 0, NUM, MAX
*get, _MAXELEMTYPE, etyp, 0, NUM, MAX
*get, _MAXREALCONST, real, 0, NUM, MAX
/go
/wb,load,end               !  done creating loads
/com,--- Number of total nodes = %_numnode%
/com,--- Number of contact elements = 90
/com,--- Number of spring elements = 0
/com,--- Number of bearing elements = 0
/com,--- Number of solid elements = 702
/com,--- Number of total elements = %_numelem%
*get,_wallbsol,active,,time,wall
/com,****************************************************************************
/com,*************************    SOLUTION       ********************************
/com,****************************************************************************
/solu
antype,0                   ! static analysis
neqit,1,force              ! Force 1 eq iteration since only nonlinearity is bonded/no sep contact
pred,off
eqsl,sparse,,,,,1
cntr,print,1               ! print out contact info and also make no initial contact an error
nldiag,cont,iter           ! print out contact info each equilibrium iteration
resc,,none                 ! Do not keep any restart files
/com,****************************************************
/com,******************* SOLVE FOR LS 1 ****************
esel,s,type,,5
nsle
sfe,all,1,pres,1,%_loadvari37x%
sfe,all,2,pres,1,%_loadvari37y%
sfe,all,3,pres,1,%_loadvari37z%
nsel,all
esel,all
/nopr
/gopr
nsub,1,1,1
time,1.
outres,erase
outres,all,none
outres,nsol,all
outres,rsol,all
outres,strs,all
outres,epel,all
outres,eppl,all
stabilize,off                   ! Stabilization turned OFF by user
! *********** WB SOLVE COMMAND ***********
! check interactive state
*get,ANSINTER_,active,,int
*if,ANSINTER_,ne,0,then
/eof
*endif
solve
/com *************** Write FE CONNECTORS ********* 
CEWRITE,file,ce,,INTE
/com,****************************************************
/com,*************** FINISHED SOLVE FOR LS 1 *************
*set,_DS_PROGRESS          ! turn off progress updates to avoid virus scanning bug
*get,_wallasol,active,,time,wall
/nopr
*get,_numnode,node,0,count
*get,_numelem,elem,0,count
*get, _MAXELEMNUM, elem, 0, NUM, MAX
*get, _MAXNODENUM, node, 0, NUM, MAX,,,INTERNAL
*get, _MAXELEMTYPE, etyp, 0, NUM, MAX
*get, _MAXREALCONST, real, 0, NUM, MAX
/gopr
/post1
xmlo,ENCODING,ISO-8859-1
xmlo,parm
/xml,parm,xml
fini
/gopr
*get,_walldone,active,,time,wall
_preptime=(_wallbsol-_wallstrt)*3600
_solvtime=(_wallasol-_wallbsol)*3600
_posttime=(_walldone-_wallasol)*3600
_totaltim=(_walldone-_wallstrt)*3600
/wb,file,end               ! done with WB generated input
